6
Properties=species:S:1:pos:R:3 Energy:=T 10.5736998=T pbc="F F F"
C       -1.72996366       1.47006752       0.06345190
C       -3.12872312       1.44867982       0.04545805
C       -3.84718955       2.64860512       0.08120891
C       -3.16690675       3.86993717       0.13493283
C       -1.76813736       3.89132574       0.15292740
C       -1.04967006       2.69139048       0.11717660